Circuit: * C:\Users\Julien\Draft2.asc

Fatal Error: This circuit does not have a conduction path to ground!
   Please flag a node as ground.
